<?xml version="1.0" encoding="UTF-8"?>
<edges version="1.26" xmlns:xsi="http://www.w3.org/2001/XMLSchema-instance"
       xsi:noNamespaceSchemaLocation="http://sumo.dlr.de/xsd/edges_file.xsd">
  <edge id="W0J0" from="W0" to="J0" priority="9" numLanes="2" speed="13.89"/>
  <edge id="J0J1" from="J0" to="J1" priority="9" numLanes="2" speed="13.89"/>
  <edge id="J1J0" from="J1" to="J0" priority="9" numLanes="2" speed="13.89"/>
  <edge id="J1J2" from="J1" to="J2" priority="9" numLanes="2" speed="13.89"/>
  <edge id="J2J1" from="J2" to="J1" priority="9" numLanes="2" speed="13.89"/>
  <edge id="J2E2" from="J2" to="E2" priority="9" numLanes="2" speed="13.89"/>
  <edge id="N0J0" from="N0" to="J0" priority="7" numLanes="2" speed="11.11"/>
  <edge id="J0N0" from="J0" to="N0" priority="7" numLanes="2" speed="11.11"/>
  <edge id="S0J0" from="S0" to="J0" priority="7" numLanes="2" speed="11.11"/>
  <edge id="J0S0" from="J0" to="S0" priority="7" numLanes="2" speed="11.11"/>
  <edge id="N1J1" from="N1" to="J1" priority="7" numLanes="2" speed="11.11"/>
  <edge id="J1N1" from="J1" to="N1" priority="7" numLanes="2" speed="11.11"/>
  <edge id="S1J1" from="S1" to="J1" priority="7" numLanes="2" speed="11.11"/>
  <edge id="J1S1" from="J1" to="S1" priority="7" numLanes="2" speed="11.11"/>
  <edge id="N2J2" from="N2" to="J2" priority="7" numLanes="2" speed="11.11"/>
  <edge id="J2N2" from="J2" to="N2" priority="7" numLanes="2" speed="11.11"/>
  <edge id="S2J2" from="S2" to="J2" priority="7" numLanes="2" speed="11.11"/>
  <edge id="J2S2" from="J2" to="S2" priority="7" numLanes="2" speed="11.11"/>
</edges>