<?xml version="1.0" encoding="UTF-8"?>
<nodes version="1.26" xmlns:xsi="http://www.w3.org/2001/XMLSchema-instance"
       xsi:noNamespaceSchemaLocation="http://sumo.dlr.de/xsd/nodes_file.xsd">
  <node id="W0" x="-250.00" y="0.00" type="dead_end"/>
  <node id="E2" x="1250.00" y="0.00" type="dead_end"/>
  <node id="N0" x="0.00" y="250.00" type="dead_end"/>
  <node id="S0" x="0.00" y="-250.00" type="dead_end"/>
  <node id="N1" x="500.00" y="250.00" type="dead_end"/>
  <node id="S1" x="500.00" y="-250.00" type="dead_end"/>
  <node id="N2" x="1000.00" y="250.00" type="dead_end"/>
  <node id="S2" x="1000.00" y="-250.00" type="dead_end"/>
  <node id="J0" x="0.00" y="0.00" type="traffic_light"/>
  <node id="J1" x="500.00" y="0.00" type="traffic_light"/>
  <node id="J2" x="1000.00" y="0.00" type="traffic_light"/>
</nodes>